0,    100.00, 31, 0, 1,  60.00 / PSS(R)E 31 RAW created by rawd31  THU, SEP 06 2012  13:23
102年7月尖峰電力潮流圖(系統負載36180.8MW)
負載比例：北部41.3%,中部28.6%(含東部),南部30.1%
     1,'北部汽電    ',  34.5000,2,   1, 101,   1,1.00683, -30.9406
     2,'中部汽電    ',  34.5000,2,   2, 102,   1,1.01395, -14.4248
     3,'南部汽電    ',  34.5000,2,   3, 103,   1,1.01351, -10.3003
    10,'核一E       ', 345.0000,1,   1, 101,   1,1.01449, -30.8607
    11,'核一#1      ',  19.0000,2,   1, 101,   1,0.98500, -24.6213
    12,'核一#2      ',  19.0000,2,   1, 101,   1,0.98500, -23.9186
    21,'核二#1      ',  22.0000,2,   1, 101,   1,0.98500, -23.1227
    22,'核二#2      ',  22.0000,2,   1, 101,   1,0.98500, -23.4244
    25,'核二STR.1   ',  13.8000,1,   1, 101,   1,1.01488, -30.3935
    30,'核二E       ', 345.0000,1,   1, 101,   1,1.01488, -30.3935
    51,'龍門H       ', 161.0000,1,   1, 101,   1,0.99794, -41.2603
   100,'協和E       ', 345.0000,1,   1, 101,   1,1.01544, -30.4842
   101,'協和#1      ',  18.0000,2,   1, 101,   1,0.98500, -24.4906
   102,'協和#2      ',  18.0000,2,   1, 101,   1,0.98500, -24.7426
   103,'協和#3      ',  18.0000,2,   1, 101,   1,0.98500, -24.7054
   104,'協和#4      ',  18.0000,2,   1, 101,   1,0.98500, -24.8670
   105,'協和TUS2    ',   4.1600,1,   1, 101,   1,1.04147, -30.4842
    15,'核一TSU1    ',   4.1600,1,   1, 101,   1,1.01449, -30.8607
   205,'深澳臨D     ',  23.9000,1,   1,   1,   1,1.00858, -45.1909
   220,'林口H       ', 161.0000,1,   1, 101,   1,1.01612, -42.2718
   221,'林口#1      ',  24.0000,2,   1, 101,   1,0.98000, -37.2854
   222,'林口#2      ',  20.0000,2,   1, 101,   1,0.98000, -37.8185
   229,'林口D       ',  23.9000,1,   1, 101,   1,0.99874, -44.7522
   231,'林口ST1     ',   4.3000,1,   1, 101,   1,1.01612, -42.2718
   232,'林口ST2     ',   4.3000,1,   1, 101,   1,1.01612, -42.2718
   300,'大潭E       ', 345.0000,1,   1,   7,   1,0.99700, -23.7866
   301,'大潭#1G1    ',  16.5000,2,   1, 101,   1,0.96578, -17.4834
   302,'大潭#1G2    ',  16.5000,2,   1, 101,   1,0.96359, -17.4536
   303,'大潭#1G3    ',  16.5000,2,   1, 101,   1,0.96360, -17.4579
   304,'大潭#2G1    ',  16.5000,2,   1, 101,   1,0.97082, -17.7374
   305,'大潭#2G2    ',  16.5000,2,   1, 101,   1,0.96864, -17.7411
   306,'大潭#2G3    ',  16.5000,2,   1, 101,   1,0.96865, -17.7454
   307,'大潭#3G1    ',  16.0000,2,   1, 101,   1,0.97143, -23.7866
   309,'大潭#3G2    ',  16.0000,2,   1, 101,   1,0.96763, -17.7286
   311,'大潭#4G1    ',  16.0000,2,   1, 101,   1,0.96715, -17.4213
   312,'大潭#4G2    ',  16.0000,2,   1, 101,   1,0.96730, -17.4781
   313,'大潭#5G1    ',  16.0000,2,   1, 101,   1,0.96741, -17.4846
   314,'大潭#5G2    ',  16.0000,2,   1, 101,   1,0.96722, -17.4288
   315,'大潭#6G1    ',  16.0000,2,   1, 101,   1,0.96725, -17.4755
   316,'大潭#6G2    ',  16.0000,2,   1, 101,   1,0.96727, -17.4454
   321,'大潭ST1     ',  18.0000,2,   1, 101,   1,0.96542, -18.1185
   322,'大潭ST2     ',  18.0000,2,   1, 101,   1,0.97197, -19.4526
   323,'大潭ST3     ',  16.0000,2,   1, 101,   1,0.97064, -20.3646
   324,'大潭ST4     ',  16.0000,2,   1, 101,   1,0.96722, -17.4485
   325,'大潭ST5     ',  16.0000,2,   1, 101,   1,0.96726, -17.4488
   450,'石門H       ', 161.0000,1,   1, 101,   1,1.00522, -35.4443
   451,'石門#1      ',  13.8000,2,   1, 101,   1,0.96151, -35.4443
   452,'石門#2      ',  13.8000,2,   1, 101,   1,0.96151, -35.4443
   530,'中火北 E    ', 345.0000,1,   2, 102,   1,1.01425, -18.2721
   531,'中火#1      ',  22.0000,2,   2, 102,   1,0.98000, -11.2163
   532,'中火#2      ',  22.0000,2,   2, 102,   1,0.98000, -11.2163
   533,'中火#3      ',  20.9000,2,   2, 102,   1,1.01022, -11.9563
   534,'中火#4      ',  22.0000,2,   2, 102,   1,0.98000, -11.2163
   535,'中火#5      ',  21.5000,2,   2, 102,   1,0.98000,  -1.3060
   536,'中火#6      ',  21.5000,2,   2, 102,   1,0.98000,  -1.3060
   537,'中火#7      ',  21.5000,2,   2, 102,   1,0.98000,  -1.3060
   538,'中火#8      ',  21.5000,2,   2, 102,   1,0.98000,  -1.3060
   539,'中火#9      ',  19.0000,2,   2, 102,   1,0.98000, -11.8705
   540,'中火南E     ', 345.0000,1,   2, 102,   1,1.01976,  -8.0647
   541,'中火#10     ',  19.0000,2,   2, 102,   1,0.98000,  -1.5133
   544,'中火GT1     ',  13.8000,2,   2, 102,   1,0.96935, -21.9648
   545,'中火GT2     ',  13.8000,2,   2, 102,   1,0.96935, -21.9648
   546,'中火GT3     ',  13.8000,2,   2, 102,   1,0.96935, -21.9648
   547,'中火GT4     ',  13.8000,2,   2, 102,   1,0.96935, -21.9648
   555,'中火ST.1    ',   6.9000,1,   2, 102,   1,1.01425, -18.2721
   556,'中火ST.2    ',   6.9000,1,   2, 102,   1,1.01425, -18.2721
   600,'通霄甲H     ', 161.0000,1,   2, 102,   1,1.01411, -24.3238
   603,'通霄G1-1    ',  13.8000,2,   2, 102,   1,0.98000, -19.6744
   604,'通霄G1-2    ',  13.8000,2,   2, 102,   1,1.01376, -20.7397
   605,'通霄G1-3    ',  13.8000,2,   2, 102,   1,1.01368, -20.6763
   606,'通霄ST1     ',  13.8000,2,   2, 102,   1,0.98000, -20.0461
   607,'通霄G2-1    ',  13.8000,2,   2, 102,   1,0.98000, -19.6744
   608,'通霄G2-2    ',  13.8000,2,   2, 102,   1,1.01375, -20.7372
   609,'通霄G2-3    ',  13.8000,2,   2, 102,   1,1.01369, -20.6858
   610,'通霄乙H     ', 161.0000,1,   2, 102,   1,1.01618, -18.0379
   611,'通霄ST2     ',  13.8000,2,   2, 102,   1,0.98000, -20.0461
   612,'通霄G3-1    ',  13.8000,2,   2, 102,   1,0.98000, -13.6785
   613,'通霄G3-2    ',  13.8000,2,   2, 102,   1,1.01594, -14.6658
   614,'通霄G3-3    ',  13.8000,2,   2, 102,   1,1.01588, -14.6140
   615,'通霄ST3     ',  13.8000,2,   2, 102,   1,0.98000, -13.8260
   616,'通霄G4-1    ',  13.8000,2,   2, 102,   1,0.98000, -13.4623
   617,'通霄G4-2    ',  13.8000,2,   2, 102,   1,1.01493, -13.3957
   618,'通霄G4-3    ',  13.8000,2,   2, 102,   1,1.01431, -12.8207
   619,'通霄ST4     ',  13.8000,2,   2, 102,   1,0.98000, -13.5541
   621,'通霄G5-1    ',  13.8000,2,   2, 102,   1,0.98000, -12.5250
   622,'通霄G5-2    ',  13.8000,2,   2, 102,   1,1.01401, -12.6060
   623,'通霄G5-3    ',  13.8000,2,   2, 102,   1,1.01484, -13.3013
   624,'通霄ST5     ',  13.8000,2,   2, 102,   1,0.98000, -12.7620
   625,'通霄G6-1    ',  13.8000,2,   2, 102,   1,0.98000, -19.6118
   626,'通霄G6-2    ',  13.8000,2,   2, 102,   1,0.98000, -19.6580
   627,'通霄ST6     ',  13.8000,2,   2, 102,   1,0.98000, -19.7436
   700,'大觀二E     ', 345.0000,1,   2, 102,   1,1.01427, -14.1435
   701,'大觀二#1    ',  16.5000,2,   2, 102,   1,1.01020,  -7.4447
   702,'大觀二#2    ',  16.5000,2,   2, 102,   1,1.01020,  -7.4447
   703,'大觀二#3    ',  16.5000,2,   2, 102,   1,1.01427, -14.1435
   704,'大觀二#4    ',  16.5000,2,   2, 102,   1,1.01427, -14.1435
   705,'觀二S.T1    ',   6.9000,1,   2, 102,   1,1.01427, -14.1435
   706,'觀二S.T2    ',   6.9000,1,   2, 102,   1,1.01427, -14.1435
   710,'明潭E       ', 345.0000,1,   2, 102,   1,1.01117, -11.7263
   711,'明潭#1      ',  16.5000,2,   2, 102,   1,1.01117, -11.7263
   712,'明潭#2      ',  16.5000,2,   2, 102,   1,1.00687,  -5.1342
   713,'明潭#3      ',  16.5000,2,   2, 102,   1,1.00647,  -4.9411
   714,'明潭#4      ',  16.5000,2,   2, 102,   1,1.00647,  -4.9411
   715,'明潭#5      ',  16.5000,2,   2, 102,   1,1.00647,  -4.9411
   716,'明潭#6      ',  16.5000,2,   2, 102,   1,1.00647,  -4.9411
   717,'水里G       ',  13.8000,2,   2, 102,   1,1.01117, -11.7263
   718,'明潭S.T2    ',  13.8000,1,   2, 102,   1,1.01117, -11.7263
   800,'天輪H       ', 161.0000,1,   2, 102,   1,1.01523, -23.7541
   801,'天輪G1      ',  11.0000,2,   2, 102,   1,0.98000, -20.9222
   802,'天輪G2      ',  11.0000,2,   2, 102,   1,0.98000, -21.0595
   803,'天輪G3      ',  11.0000,2,   2, 102,   1,0.98000, -21.0476
   804,'天輪G4      ',  11.0000,2,   2, 102,   1,0.98000, -20.4820
   810,'新天輪H     ', 161.0000,1,   2, 102,   1,1.01530, -23.7503
   811,'新天輪G5    ',  13.8000,2,   2, 102,   1,0.98000, -22.9614
   825,'新谷關H     ', 161.0000,1,   2, 102,   1,1.02034, -22.7418
   826,'新谷關D     ',  23.9000,1,   2, 102,   1,1.00724, -23.3374
   830,'青山H       ', 161.0000,4,   2, 102,   1,1.00000,   0.0000
   840,'德基H       ', 161.0000,1,   2, 102,   1,1.01967, -22.6594
   841,'德基G1      ',  13.8000,2,   2, 102,   1,0.97596, -21.0335
   842,'德基G2      ',  13.8000,2,   2, 102,   1,0.97596, -21.0335
   843,'德基G3      ',  13.8000,2,   2, 102,   1,0.97533, -22.6594
   844,'德基D       ',  23.9000,1,   2, 102,   1,1.00307, -23.7617
   850,'鉅工H       ', 161.0000,1,   2, 102,   1,1.00571, -24.3608
   851,'鉅工G1      ',  11.0000,2,   2, 102,   1,0.98000, -22.4206
   852,'鉅工G2      ',  11.0000,2,   2, 102,   1,0.98000, -22.3985
   853,'鉅工D       ',  23.9000,1,   2, 102,   1,1.00314, -26.4062
   860,'大觀一H     ', 161.0000,1,   2, 102,   1,1.00725, -24.2452
   861,'大觀一#1    ',  11.0000,2,   2, 102,   1,0.98000, -21.9026
   862,'大觀一#2    ',  11.0000,2,   2, 102,   1,0.98000, -21.8368
   863,'大觀一#3    ',  11.0000,2,   2, 102,   1,0.98000, -21.9445
   864,'大觀一#4    ',  11.0000,2,   2, 102,   1,0.98000, -21.9445
   865,'大觀一#5    ',  11.0000,2,   2, 102,   1,0.98000, -21.9445
   870,'萬大H       ', 161.0000,1,   2, 102,   1,1.00138, -25.7440
   871,'萬大G1-2    ',  11.0000,2,   2, 102,   1,0.98000, -23.5152
   873,'萬大G3      ',  11.0000,2,   2, 102,   1,0.98000, -25.2853
   880,'卓蘭H       ', 161.0000,1,   2, 102,   1,1.01597, -25.4443
   881,'士林G1      ',  13.8000,2,   2, 102,   1,0.98000, -23.7737
   882,'士林G2      ',  13.8000,2,   2, 102,   1,0.98000, -24.6093
   890,'馬鞍H       ', 161.0000,1,   2, 102,   1,1.01606, -24.7790
   891,'馬鞍G1      ',  13.8000,2,   2, 102,   1,0.98000, -22.4669
   892,'馬鞍G2      ',  13.8000,2,   2, 102,   1,0.98000, -23.2536
   895,'新谷關G1    ',  13.8000,2,   2, 102,   1,0.98000, -20.8029
   896,'新谷關G2    ',  13.8000,2,   2, 102,   1,0.98000, -20.8045
   898,'新谷關G4    ',  13.8000,2,   2, 102,   1,0.98000, -20.8352
  1000,'核三E       ', 345.0000,1,   3, 103,   1,1.01554,  -4.0331
  1001,'核三#1      ',  25.0000,2,   3, 103,   1,0.99000,   2.9335
  1002,'核三#2      ',  25.0000,2,   3, 103,   1,0.99000,   2.9389
  1007,'核三G1      ',  13.8000,2,   3, 103,   1,1.00847, -14.1205
  1008,'核三G2      ',  13.8000,2,   3, 103,   1,1.00847, -14.1205
  1009,'核三STR     ',  13.8000,1,   3, 103,   1,1.04158,  -4.0331
  1020,'核三H       ', 161.0000,1,   3, 103,   1,1.00847, -14.1205
  1077,'興達G1-1    ',  13.8000,2,   3, 103,   1,0.96893,  -4.5807
  1078,'興達1-23    ',  13.8000,2,   3, 103,   1,0.96000,   6.3433
  1079,'興達ST1     ',  16.0000,2,   3, 103,   1,0.96000,  -1.4658
  1080,'興達北E     ', 345.0000,1,   3, 103,   1,1.01005,  -6.9357
  1081,'興達#1      ',  18.0000,2,   3, 103,   1,0.96000,  -0.6570
  1082,'興達#2      ',  18.0000,2,   3, 103,   1,0.96000,  -0.6305
  1083,'興達#3      ',  22.0000,3,   3, 103,   1,0.96000,   0.0000
  1084,'興達#4      ',  22.0000,2,   3, 103,   1,0.96000,   0.0926
  1087,'興達G2-1    ',  13.8000,2,   3, 103,   1,0.96949,  -4.5632
  1088,'興達2-23    ',  13.8000,2,   3, 103,   1,0.96000,   7.4229
  1089,'興達ST2     ',  16.0000,2,   3, 103,   1,0.96000,  -1.3605
  1090,'興達南E     ', 345.0000,1,   3, 103,   1,1.00969,  -6.7037
  1091,'興達G3-1    ',  13.8000,2,   3, 103,   1,0.96876,  -4.3193
  1092,'興達3-23    ',  13.8000,2,   3, 103,   1,0.96000,   7.6269
  1093,'興達ST3     ',  16.0000,2,   3, 103,   1,0.96000,  -1.4132
  1094,'興達G4-1    ',  13.8000,2,   3, 103,   1,0.96881,  -4.2337
  1095,'興達4-23    ',  13.8000,2,   3, 103,   1,0.96000,   7.6306
  1096,'興達ST4     ',  16.0000,2,   3, 103,   1,0.96000,  -1.4203
  1097,'興達G5-1    ',  13.8000,2,   3, 103,   1,0.96867,  -4.3187
  1098,'興達5-23    ',  13.8000,2,   3, 103,   1,0.96000,   7.6313
  1099,'興達ST5     ',  16.0000,2,   3, 103,   1,0.96000,  -1.4203
  1100,'大林甲H     ', 161.0000,1,   3, 103,   1,1.00397,  -2.5263
  1101,'大林#1      ',  24.0000,1,   3, 103,   1,0.94025, -13.3722
  1102,'大林#2      ',  24.0000,1,   3, 103,   1,0.94025, -13.3722
  1103,'大林#3      ',  17.0000,2,   3, 103,   1,0.95000,  -8.0807
  1104,'大林#4      ',  17.0000,2,   3, 103,   1,0.95000,   2.7043
  1105,'大林#5      ',  18.0000,2,   3, 103,   1,0.95000,   2.9630
  1106,'大林#6      ',  21.5000,2,   3, 103,   1,0.95000,   4.2214
  1110,'大林乙H     ', 161.0000,1,   3, 103,   1,0.99409, -13.3722
  1120,'大林丙H     ', 161.0000,1,   3, 103,   1,1.00397,  -2.5263
  1123,'大林丙D     ',  23.9000,1,   3, 103,   1,1.00655,  -4.8498
  1200,'南火北H     ', 161.0000,1,   3, 103,   1,1.02198,  -8.9225
  1201,'南火G11     ',  13.8000,2,   3, 103,   1,0.97485,  -3.0022
  1202,'南火G12     ',  13.8000,2,   3, 103,   1,0.97489,  -3.0694
  1203,'南火ST1     ',  13.8000,2,   3, 103,   1,0.97612,  -4.0823
  1204,'南火G21     ',  13.8000,2,   3, 103,   1,0.97487,  -3.0597
  1205,'南火G22     ',  13.8000,2,   3, 103,   1,0.97488,  -3.0646
  1206,'南火ST2     ',  13.8000,2,   3, 103,   1,0.97613,  -4.0878
  1210,'南火南H     ', 161.0000,1,   3, 103,   1,1.01285, -15.6183
  1211,'南火G31     ',  13.8000,2,   3, 103,   1,0.96585,  -9.5593
  1212,'南火G32     ',  13.8000,2,   3, 103,   1,0.96585,  -9.5593
  1213,'南火ST3     ',  13.8000,2,   3, 103,   1,0.96731, -10.6953
  1214,'南火G4      ',  16.0000,2,   3, 103,   1,0.95787,  -8.4339
  1400,'龍澗L       ',  69.0000,1,   4, 104,   1,1.02448, -18.5401
  1401,'龍澗G       ',  11.0000,2,   4, 104,   1,0.98000, -17.2443
  1497,'銅門乙      ',  69.0000,4,   4, 104,   1,1.00000,   0.0000
  1499,'銅門甲      ',  69.0000,4,   4, 104,   1,1.00000,   0.0000
  1500,'冬山E       ', 345.0000,1,   1,   1,   1,1.01181, -30.6586
  1501,'冬山H       ', 161.0000,1,   1,   1,   1,1.00259, -33.6274
  1508,'冬山T3      ',  33.0000,1,   1,   1,  31,0.95219, -34.2274
  1550,'汐止E       ', 345.0000,1,   1,   2,   1,1.01045, -32.2610
  1551,'汐止H       ', 161.0000,1,   1,   2,   1,0.99788, -40.0758
  1558,'汐止T4      ',  33.0000,1,   1,   2,  31,0.99728, -38.7468
  1591,'松山H       ', 161.0000,1,   1,   2,   1,0.99358, -41.2543
  1592,'松山L       ',  69.0000,1,   1,   2,   1,1.01120, -44.7770
  1601,'大安H       ', 161.0000,1,   1,   3,   1,0.99802, -38.9773
  1650,'深美E       ', 345.0000,1,   1,   3,   1,1.00790, -32.6575
  1651,'深美H       ', 161.0000,1,   1,   3,   1,1.00213, -37.4499
  1653,'深美D       ',  23.9000,1,   1,   3,   1,1.01050, -42.1849
  1658,'深美T5      ',  33.0000,1,   1,   3,  31,1.00285, -38.6499
  1700,'板橋E       ', 345.0000,1,   1,   4,   1,1.00555, -33.3193
  1701,'板橋H       ', 161.0000,1,   1,   4,   1,1.00043, -39.4234
  1702,'板橋L       ',  69.0000,1,   1,   4,   1,1.00509, -43.1026
  1703,'板橋D       ',  23.9000,1,   1,   4,   1,1.00455, -46.6032
  1708,'板橋ET4     ',  33.0000,1,   1,   4,  31,1.00182, -40.8373
  1750,'頂湖E       ', 345.0000,1,   1,   5,   1,1.00391, -33.9473
  1751,'頂湖東H     ', 161.0000,1,   1,   5,   1,1.00773, -41.7570
  1752,'頂湖L       ',  69.0000,2,   1,   5,   1,1.01019, -45.2813
  1758,'頂湖東ET3   ',  33.0000,1,   1,   5,  31,1.01506, -42.7910
  1761,'頂湖西H     ', 161.0000,1,   1,   5,   1,0.99299, -42.3223
  1768,'頂湖西ET6   ',  33.0000,1,   1,   5,  31,1.00024, -44.1633
  1851,'大潭甲H     ', 161.0000,1,   1,   7,   1,0.99630, -25.3044
  1861,'大潭乙      ', 161.0000,1,   1,   7,   1,1.00132, -25.5114
  1871,'大潭丙      ', 161.0000,1,   1,   7,   1,1.00132, -25.5114
  1900,'龍潭北E     ', 345.0000,1,   1,   6,   1,1.00683, -30.9406
  1901,'龍潭北H     ', 161.0000,1,   1,   6,   1,1.00506, -35.3343
  1908,'龍潭北ET.3  ',  33.0000,1,   1,   6,  31,1.00386, -34.7664
  1910,'龍潭南E     ', 345.0000,1,   1,   7,   1,1.00062, -27.9703
  1911,'龍潭南H     ', 161.0000,1,   1,   7,   1,1.00075, -27.2381
  1918,'龍潭南ET.5  ',  33.0000,1,   1,   7,  31,0.99910, -27.3244
  2000,'峨眉E       ', 345.0000,1,   2,   8,   1,0.99850, -27.0800
  2001,'峨眉H       ', 161.0000,1,   2,   8,   1,1.00751, -32.0328
  2003,'峨眉D       ',  23.9000,1,   2,   8,   1,1.00858, -33.5367
  2008,'峨眉ET.3    ',  33.0000,1,   2,   8,  31,1.00785, -31.2156
  2100,'天輪E       ', 345.0000,1,   2,   9,   1,1.01022, -23.6961
  2108,'天輪ET1     ',  33.0000,1,   2,   9,  31,1.01572, -23.7578
  2150,'中港E       ', 345.0000,1,   2,  11,   1,1.01196, -19.0267
  2151,'中港H       ', 161.0000,1,   2,  11,   1,1.01647, -23.2762
  2152,'中港L       ',  69.0000,1,   2,  11,   1,1.01335, -24.4541
  2158,'中港ET4     ',  33.0000,1,   2,  11,  31,1.01908, -24.2125
  2201,'霧峰H       ', 161.0000,1,   2,   9,   1,0.99473, -24.4829
  2202,'霧峰L       ',  69.0000,1,   2,   9,   1,1.00670, -28.5876
  2203,'霧峰D       ',  23.9000,1,   2,   9,   1,1.00854, -29.6799
  2208,'霧峰MT3     ',  11.0000,1,   2,   9,   1,1.00684, -28.9045
  2251,'中火H       ', 161.0000,1,   2,  10,   1,1.01344, -21.9648
  2253,'中火H1      ', 161.0000,1,   2,  10,   1,1.01344, -21.9648
  2256,'中火H2      ', 161.0000,1,   2,  10,   1,1.01344, -21.9648
  2258,'中火ET1     ',  33.0000,1,   2,  10,  31,1.01781, -22.8397
  2259,'中火D       ',  23.9000,1,   2,  10,   1,1.00910, -23.1430
  2300,'彰濱E       ', 345.0000,1,   2,  12,   1,1.01919,  -8.4298
  2301,'彰濱H       ', 161.0000,1,   2,  12,   1,1.01932,  -8.3916
  2303,'彰濱D       ',  23.9000,1,   2,  12,   1,1.01137,  -9.4771
  2308,'彰濱ET1     ',  33.0000,1,   2,  12,  31,1.01934,  -8.3842
  2350,'全興E       ', 345.0000,1,   2,  13,   1,1.01836,  -8.8700
  2351,'全興H       ', 161.0000,1,   2,  13,   1,1.00900, -10.5885
  2353,'全興D       ',  23.9000,1,   2,  13,   1,1.00753, -13.3329
  2358,'全興ET3     ',  33.0000,1,   2,  13,  31,1.01032, -10.9824
  2400,'南投E       ', 345.0000,1,   2,  14,   1,1.01091, -11.9316
  2401,'南投H       ', 161.0000,1,   2,  14,   1,1.00388, -14.1377
  2402,'南投L       ',  69.0000,1,   2,  14,   1,1.01382, -17.7063
  2408,'南投ET2     ',  33.0000,1,   2,  14,  31,1.00296, -14.6179
  2480,'中寮北E     ', 345.0000,1,   2,  31,   1,1.01395, -14.4248
  2490,'中寮南E     ', 345.0000,1,   2,  31,   1,1.01130, -12.3158
  2500,'嘉民E       ', 345.0000,1,   3,  15,   1,1.01864, -12.9812
  2501,'嘉民北H     ', 161.0000,1,   3,  15,   1,1.00452, -19.7352
  2508,'嘉民北ET3   ',  33.0000,1,   3,  15,  31,1.00839, -14.3666
  2511,'嘉民南H     ', 161.0000,1,   3,  15,   1,1.01054, -14.5902
  2518,'嘉民南ET5   ',  33.0000,1,   3,  15,  31,1.00826, -14.3574
  2600,'南科E       ', 345.0000,1,   3,  16,   1,1.01716, -13.7325
  2601,'南科東H     ', 161.0000,1,   3,  16,   1,1.00198, -18.1957
  2603,'南科東D     ',  23.9000,1,   3,  16,   1,1.00541, -23.6480
  2608,'南科東ET5   ',  33.0000,1,   3,  16,  31,1.00230, -18.7440
  2611,'南科西H     ', 161.0000,1,   3,  16,   1,1.00671, -15.0244
  2613,'南科西D     ',  23.9000,1,   3,  16,   1,1.00331, -19.2727
  2618,'南科西ET2   ',  33.0000,1,   3,  16,  31,1.00731, -15.1969
  2650,'龍崎北E     ', 345.0000,1,   3,  17,   1,1.01351, -10.3003
  2651,'龍崎北H     ', 161.0000,1,   3,  17,   1,1.00920, -15.3338
  2658,'龍崎北ET5   ',  33.0000,1,   3,  17,  31,1.00829, -14.6705
  2660,'龍崎南E     ', 345.0000,1,   3,  18,   1,1.01427,  -9.7104
  2661,'龍崎南H     ', 161.0000,1,   3,  18,   1,1.00519, -11.3103
  2668,'龍崎南ET3   ',  33.0000,1,   3,  18,  31,1.00639, -11.6498
  2670,'路北E       ', 345.0000,1,   3,  24,   1,1.01005,  -7.7755
  2671,'路北H       ', 161.0000,1,   3,  24,   1,1.01542, -11.1333
  2672,'路北L       ',  69.0000,1,   3,  24,   1,1.00252, -11.2931
  2673,'路北D       ',  23.9000,1,   3,  24,   1,1.00474, -11.4687
  2674,'路北MT1     ',  11.0000,1,   3,  24,   1,1.00250, -11.3057
  2678,'路北ET3     ',  33.0000,4,   3,  24,  31,1.00000,   0.0000
  2680,'興益E       ', 345.0000,1,   3,  19,   1,1.01003,  -6.9388
  2681,'興益H       ', 161.0000,1,   3,  19,   1,1.00363,  -7.6330
  2682,'興益L       ',  69.0000,2,   3,  19,   1,1.00025,  -9.3312
  2688,'興益ET1     ',  33.0000,1,   3,  19,  31,1.00271,  -7.7468
  2750,'仁武E       ', 345.0000,1,   3,  23,   1,1.02007, -10.3245
  2751,'仁武H       ', 161.0000,1,   3,  23,   1,1.00944, -15.2192
  2753,'仁武D       ',  23.9000,1,   3,  23,   1,1.01426, -20.2261
  2758,'仁武ET5     ',  33.0000,1,   3,  23,  31,1.01262, -15.6360
  2801,'高雄H       ', 161.0000,1,   3,  23,   1,1.01395, -16.0000
  2802,'高雄L       ',  69.0000,2,   3,  23,   1,1.01111, -18.2016
  2803,'高雄D       ',  23.9000,1,   3,  23,   1,1.01740, -19.9873
  2851,'五甲H       ', 161.0000,1,   3,  20,   1,1.02141,  -9.2890
  2852,'五甲L       ',  69.0000,1,   3,  20,   1,1.01479, -11.5583
  2900,'高港E       ', 345.0000,1,   3,  20,   1,1.01898,  -9.2574
  2901,'高港甲H     ', 161.0000,1,   3,  20,   1,0.99923,  -4.3424
  2902,'高港甲L     ',  69.0000,2,   3,  20,   1,1.00284,  -6.6156
  2908,'高港甲ET1   ',  33.0000,1,   3,  20,  31,0.99717,  -3.2664
  2911,'高港乙H     ', 161.0000,1,   3,  20,   1,1.02002,  -9.2826
  2918,'高港乙ET3   ',  33.0000,1,   3,  20,  31,0.98152,  -9.2235
  2950,'大鵬E       ', 345.0000,1,   3,  21,   1,1.01674,  -8.1992
  2951,'大鵬H       ', 161.0000,1,   3,  21,   1,1.01654, -10.7973
  2952,'大鵬L       ',  69.0000,2,   3,  21,   1,1.00199, -12.1638
  2958,'大鵬ET4     ',  33.0000,1,   3,  21,  31,1.01747, -11.3921
  2959,'大鵬MT2     ',  11.0000,1,   3,  21,   1,1.00204, -12.3024
  3000,'鳳林E       ', 345.0000,1,   4,  22,   1,1.01759, -14.6020
  3001,'鳳林H       ', 161.0000,1,   4,  22,   1,1.00754, -16.5894
  3003,'鳳林D       ',  23.9000,1,   4,  22,   1,1.00100, -18.1864
  3008,'鳳林ET2     ',  33.0000,1,   4,  22,  31,1.00886, -17.0736
  3101,'羅東H       ', 161.0000,1,   1,   1,   1,1.00585, -34.1884
  3102,'羅東L       ',  69.0000,2,   1,   1,   1,1.00671, -37.3813
  3108,'羅東MT3     ',  11.0000,1,   1,   1,   1,1.00741, -37.6270
  3131,'南港H       ', 161.0000,1,   1,   2,   1,0.99736, -40.3861
  3132,'南港L       ',  69.0000,1,   1,   2,   1,1.00999, -43.2129
  3133,'南港D       ',  23.9000,1,   1,   2,   1,1.00489, -45.2633
  3138,'南港MT2     ',  11.0000,1,   1,   2,   1,1.01176, -43.4347
  3141,'八堵H       ', 161.0000,1,   1,   2,   1,0.99870, -41.5847
  3142,'八堵L       ',  69.0000,2,   1,   2,   1,1.01050, -45.7006
  3148,'八堵MT2     ',  11.0000,1,   1,   2,   1,1.01264, -46.0789
  3161,'陽明H       ', 161.0000,1,   1,   2,   1,0.99195, -41.3986
  3162,'陽明L       ',  69.0000,2,   1,   2,   1,1.01396, -45.4509
  3168,'陽明MT1     ',  11.0000,1,   1,   2,   1,1.01358, -45.8400
  3188,'松山MT1     ',  11.0000,1,   1,   2,   1,1.01146, -45.0494
  3201,'城中H       ', 161.0000,1,   1,   4,   1,0.99721, -40.2975
  3202,'城中L       ',  69.0000,1,   1,   4,   1,0.98728, -44.4035
  3208,'城中MT1     ',  11.0000,1,   1,   4,   1,0.98781, -44.6728
  3221,'台北H       ', 161.0000,1,   1,   3,   1,0.99955, -39.7266
  3222,'台北L       ',  69.0000,2,   1,   3,   1,1.00023, -42.4045
  3223,'台北D       ',  23.9000,1,   1,   3,   1,1.01107, -42.9150
  3228,'台北MT2     ',  11.0000,1,   1,   3,   1,1.00197, -42.6380
  3231,'大同H       ', 161.0000,1,   1,   5,   1,0.99706, -44.9671
  3232,'大同L       ',  69.0000,1,   1,   5,   1,1.01003, -49.5193
  3238,'大同MT1     ',  11.0000,1,   1,   5,   1,1.01051, -49.8189
  3241,'蘆洲H       ', 161.0000,1,   1,   5,   1,0.99789, -44.7309
  3242,'蘆洲L       ',  69.0000,1,   1,   5,   1,1.00619, -47.9294
  3243,'蘆洲D       ',  23.9000,1,   1,   5,   1,1.00814, -50.7406
  3248,'蘆洲MT2     ',  11.0000,1,   1,   5,   1,1.00830, -48.1387
  3258,'板橋MT2     ',  11.0000,1,   1,   4,   1,1.00751, -43.4319
  3278,'頂湖東MT8   ',  11.0000,1,   1,   5,   1,1.01240, -45.5910
  3281,'東林H       ', 161.0000,1,   1,   5,   1,1.00709, -43.3351
  3282,'東林L       ',  69.0000,2,   1,   5,   1,1.00831, -45.6259
  3283,'東林D       ',  23.9000,1,   1,   5,   1,1.00361, -46.1397
  3288,'東林MT1     ',  11.0000,1,   1,   5,   1,1.01099, -45.7995
  3291,'蘆竹H       ', 161.0000,1,   1,   5,   1,1.01537, -42.5552
  3292,'蘆竹L       ',  69.0000,2,   1,   5,   1,1.00366, -44.9357
  3293,'蘆竹D       ',  23.9000,1,   1,   5,   1,1.00315, -48.5385
  3298,'蘆竹MT1     ',  11.0000,1,   1,   5,   1,1.00437, -45.1619
  3301,'樹德H       ', 161.0000,1,   1,   5,   1,0.99154, -44.1148
  3302,'樹德L       ',  69.0000,2,   1,   5,   1,1.00805, -47.4179
  3303,'樹德D       ',  23.9000,1,   1,   5,   1,1.00432, -50.6332
  3308,'樹德MT2     ',  11.0000,1,   1,   5,   1,1.00934, -47.7037
  3321,'中壢H       ', 161.0000,1,   1,   5,   1,1.01095, -34.7849
  3322,'中壢#1L     ',  69.0000,1,   1,   5,   1,1.01393, -37.8080
  3323,'中壢D       ',  23.9000,1,   1,   5,   1,1.00884, -40.4101
  3328,'中壢MT1     ',  11.0000,1,   1,   5,   1,1.01486, -38.0613
  3332,'中壢#2L     ',  69.0000,2,   1,   5,   1,1.01229, -39.2663
  3338,'中壢MT2     ',  11.0000,1,   1,   5,   1,1.01348, -39.6432
  3341,'觀音#1      ', 161.0000,1,   1,   7,   1,0.99921, -26.2794
  3342,'觀音#1L     ',  69.0000,2,   1,   7,   1,1.01049, -30.1609
  3348,'觀音#1MT1   ',  11.0000,1,   1,   7,   1,1.01047, -30.5305
  3352,'觀音#2L     ',  69.0000,2,   1,   7,   1,1.01350, -29.6741
  3358,'觀音#2MT2   ',  11.0000,1,   1,   7,   1,1.01323, -30.0904
  3361,'松樹H       ', 161.0000,1,   1,   6,   1,1.00542, -35.4931
  3362,'松樹#1L     ',  69.0000,2,   1,   6,   1,1.00392, -39.6651
  3363,'松樹D       ',  23.9000,1,   1,   6,   1,1.01431, -41.8539
  3366,'松樹MT2     ',  11.0000,1,   1,   6,   1,1.00322, -39.3997
  3368,'松樹MT1     ',  11.0000,1,   1,   6,   1,1.00688, -40.0196
  3369,'松樹#2L     ',  69.0000,1,   1,   6,   1,1.00366, -39.0656
  3371,'梅湖H       ', 161.0000,1,   1,   7,   1,0.99410, -28.2173
  3372,'梅湖L       ',  69.0000,2,   1,   7,   1,1.00388, -33.0084
  3378,'梅湖MT3     ',  11.0000,1,   1,   7,   1,1.00384, -33.4783
  3401,'新竹H       ', 161.0000,1,   2,   8,   1,1.00217, -34.5599
  3402,'新竹L       ',  69.0000,2,   2,   8,   1,1.01177, -37.4519
  3403,'新竹D       ',  23.9000,1,   2,   8,   1,1.01036, -38.5263
  3408,'新竹MT3     ',  11.0000,1,   2,   8,   1,1.01232, -37.7064
  3411,'苗栗H       ', 161.0000,1,   2,   8,   1,1.00359, -27.9554
  3412,'苗栗L       ',  69.0000,2,   2,   8,   1,1.00932, -31.1924
  3413,'苗栗D       ',  23.9000,1,   2,   8,   1,1.01775, -31.6319
  3418,'苗栗MT3     ',  11.0000,1,   2,   8,   1,1.00979, -31.4242
  3421,'南湖H       ', 161.0000,1,   2,   8,   1,1.00478, -32.4580
  3422,'南湖L       ',  69.0000,2,   2,   8,   1,1.01290, -34.8929
  3428,'南湖MT3     ',  11.0000,1,   2,   8,   1,1.01352, -35.0447
  3432,'通霄L       ',  69.0000,1,   2,   8,   1,1.00824, -26.5132
  3438,'通霄MT1     ',  11.0000,1,   2,   8,   1,1.00820, -26.7200
  3441,'龍秀H       ', 161.0000,1,   2,   8,   1,1.00105, -34.4220
  3442,'龍秀L       ',  69.0000,1,   2,   8,   1,1.01299, -37.0846
  3443,'龍秀D       ',  23.9000,1,   2,   8,   1,1.01299, -37.6056
  3444,'龍秀MT1     ',  11.0000,1,   2,   8,   1,1.01253, -37.3131
  3451,'翁子H       ', 161.0000,1,   2,   9,   1,1.00717, -26.1714
  3452,'翁子L       ',  69.0000,2,   2,   9,   1,1.00434, -29.7447
  3458,'翁子MT1     ',  11.0000,1,   2,   9,   1,1.00391, -30.0635
  3472,'萬大L       ',  69.0000,1,   2, 102,   1,1.00788, -26.6037
  3481,'埔里H       ', 161.0000,1,   2,   9,   1,0.99662, -26.1662
  3482,'埔里L       ',  69.0000,2,   2,   9,   1,1.00547, -27.9367
  3488,'埔里MT2     ',  11.0000,1,   2,   9,   1,1.00573, -28.0631
  3483,'埔里D       ',  23.9000,1,   2,   9,   1,1.00355, -28.4216
  3518,'中港MT8     ',  11.0000,1,   2,  11,   1,1.01326, -24.5991
  3521,'中市H       ', 161.0000,1,   2,  11,   1,1.01677, -23.6601
  3522,'中市L       ',  69.0000,2,   2,  11,   1,1.00567, -25.5941
  3523,'中市D       ',  23.9000,1,   2,  11,   1,1.01260, -27.0654
  3528,'中市MT4     ',  11.0000,1,   2,  11,   1,1.00625, -25.7617
  3531,'中清H       ', 161.0000,1,   2,  11,   1,1.01034, -24.9731
  3532,'中清L       ',  69.0000,1,   2,  11,   1,1.00435, -28.3579
  3538,'中清MT1     ',  11.0000,1,   2,  11,   1,1.00469, -28.7187
  3551,'彰化H       ', 161.0000,1,   2,  14,   1,1.00915, -12.3945
  3552,'彰化L       ',  69.0000,2,   2,  14,   1,1.01349, -17.3267
  3553,'彰化D       ',  23.9000,1,   2,  14,   1,1.01045, -17.8760
  3558,'彰化MT3     ',  11.0000,1,   2,  14,   1,1.01459, -17.6735
  3578,'南投MT7     ',  11.0000,1,   2,  14,   1,1.01344, -17.9863
  3661,'雲林H       ', 161.0000,1,   3,  15,   1,1.00958, -23.2463
  3662,'雲林L       ',  69.0000,2,   3,  15,   1,1.00747, -26.4823
  3663,'雲林D       ',  23.9000,1,   3,  15,   1,1.01101, -27.0588
  3668,'雲林MT2     ',  11.0000,1,   3,  15,   1,1.00821, -26.7814
  3671,'嘉義H       ', 161.0000,1,   3,  15,   1,1.01302, -15.5810
  3672,'嘉義L       ',  69.0000,1,   3,  15,   1,1.00637, -18.6819
  3673,'嘉義D       ',  23.9000,1,   3,  15,   1,1.00561, -19.4191
  3678,'嘉義MT2     ',  11.0000,1,   3,  15,   1,1.00655, -19.0035
  3681,'新營H       ', 161.0000,1,   3,  15,   1,1.00607, -19.1518
  3682,'新營L       ',  69.0000,2,   3,  15,   1,1.00131, -22.9669
  3683,'新營D       ',  23.9000,1,   3,  15,   1,1.01105, -23.2135
  3688,'新營MT3     ',  11.0000,1,   3,  15,   1,1.00230, -23.2445
  3701,'北港H       ', 161.0000,1,   3,  15,   1,1.00162, -23.2964
  3702,'北港L       ',  69.0000,2,   3,  15,   1,1.00153, -27.0322
  3708,'北港MT3     ',  11.0000,1,   3,  15,   1,1.00150, -27.3369
  3721,'山上H       ', 161.0000,1,   3,  17,   1,1.01027, -16.4174
  3722,'山上L       ',  69.0000,2,   3,  17,   1,1.00952, -19.7429
  3728,'山上MT2     ',  11.0000,1,   3,  17,   1,1.00922, -20.0250
  3731,'安南H       ', 161.0000,1,   3,  17,   1,1.00864, -18.7854
  3732,'安南L       ',  69.0000,2,   3,  17,   1,1.00266, -20.5767
  3733,'安南D       ',  23.9000,1,   3,  17,   1,1.00739, -24.2689
  3738,'安南MT1     ',  11.0000,1,   3,  17,   1,1.00355, -20.7197
  3761,'台南H       ', 161.0000,1,   3,  17,   1,1.00566, -17.6290
  3762,'台南L       ',  69.0000,2,   3,  17,   1,1.01114, -21.3638
  3763,'台南D       ',  23.9000,1,   3,  17,   1,1.01143, -23.7267
  3768,'台南MT2     ',  11.0000,1,   3,  17,   1,1.01151, -21.6212
  3788,'興益MT1     ',  11.0000,1,   3,  19,   1,0.99924,  -9.5100
  3791,'岡山H       ', 161.0000,1,   3,  18,   1,1.00086, -12.8473
  3792,'岡山L       ',  69.0000,2,   3,  18,   1,1.00110, -16.6339
  3793,'岡山D       ',  23.9000,1,   3,  18,   1,1.00782, -15.5834
  3798,'岡山MT3     ',  11.0000,1,   3,  18,   1,1.00146, -16.9486
  3811,'社武H       ', 161.0000,1,   3,  23,   1,1.01221, -15.7903
  3812,'社武L       ',  69.0000,2,   3,  23,   1,1.01583, -16.9268
  3813,'社武D       ',  23.9000,1,   3,  23,   1,1.01639, -20.6074
  3818,'社武MT2     ',  11.0000,1,   3,  23,   1,1.01528, -17.0386
  3838,'高雄MT2     ',  11.0000,1,   3,  23,   1,1.01139, -18.3639
  3858,'五甲MT3     ',  11.0000,1,   3,  20,   1,1.01495, -11.7235